<?xml version="1.0" encoding="utf-8"?>
<!DOCTYPE population SYSTEM "http://www.matsim.org/files/dtd/population_v6.dtd">

<population>

    <attributes>
        <attribute name="coordinateReferenceSystem" class="java.lang.String">EPSG:25832</attribute>
    </attributes>


    <person id="113f00_1">
        <attributes>
            <attribute name="IPD_actEndTimes" class="java.lang.String">36780.0;44760.0;50460.0;54000.0;71160.0;75780.0;79440.0;84840.0;-Infinity</attribute>
            <attribute name="IPD_actStartTimes" class="java.lang.String">-Infinity;38940.0;47880.0;51540.0;54840.0;72360.0;76920.0;80160.0;85500.0</attribute>
            <attribute name="IPD_actTypes" class="java.lang.String">home;business;business;business;business;business;business;business;business</attribute>
            <attribute name="age" class="java.lang.Integer">64</attribute>
            <attribute name="carAvail" class="java.lang.String">always</attribute>
            <attribute name="gender" class="java.lang.String">f</attribute>
            <attribute name="sim_carAvailability" class="java.lang.String">always</attribute>
            <attribute name="sim_ptAbo" class="java.lang.String">none</attribute>
            <attribute name="sim_regionType" class="java.lang.String">NULL</attribute>
            <attribute name="subpopulation" class="java.lang.String">person</attribute>
        </attributes>
        <plan score="47.11221115031712" selected="yes">
            <activity type="home_36600.0" link="1410424510007f" x="597169.6653616321" y="5984770.2399659185" end_time="10:13:00" >
            </activity>
            <leg mode="car" dep_time="10:13:00">
            </leg>
            <activity type="business_6000.0" link="3468988580019f" x="585128.1378518876" y="5980085.529591967" end_time="12:26:00" >
            </activity>
        </plan>


    </person>
    <!-- ====================================================================== -->

</population>