<?xml version="1.0" encoding="utf-8"?>
<!DOCTYPE population SYSTEM "http://www.matsim.org/files/dtd/population_v6.dtd">

<population>

    <attributes>
        <attribute name="coordinateReferenceSystem" class="java.lang.String">EPSG:25832</attribute>
    </attributes>


    <!-- ====================================================================== -->

    <person id="scarUserFirst">
        <attributes>
            <attribute name="IPD_actEndTimes" class="java.lang.String">32640.0;44460.0;54720.0;57540.0;-Infinity</attribute>
            <attribute name="IPD_actStartTimes" class="java.lang.String">-Infinity;35880.0;46140.0;55140.0;59220.0</attribute>
            <attribute name="IPD_actTypes" class="java.lang.String">home;business;business;business;home</attribute>
            <attribute name="age" class="java.lang.Integer">59</attribute>
            <attribute name="carAvail" class="java.lang.String">always</attribute>
            <attribute name="gender" class="java.lang.String">m</attribute>
            <attribute name="sim_carAvailability" class="java.lang.String">always</attribute>
            <attribute name="sim_ptAbo" class="java.lang.String">none</attribute>
            <attribute name="sim_regionType" class="java.lang.String">NULL</attribute>
            <attribute name="subpopulation" class="java.lang.String">person</attribute>
        </attributes>

        <plan score="29.086211440912123" selected="yes">
            <activity type="home_59400.0" link="261715230005f" x="597163.9269612308" y="5984292.652443141" end_time="09:04:00" >
            </activity>
            <leg mode="walk" dep_time="09:04:00" trav_time="00:00:00">
                <attributes>
                    <attribute name="routingMode" class="java.lang.String">sharing:car</attribute>
                </attributes>
            </leg>
            <activity type="sharing booking interaction" link="261715230005f" start_time="09:04:00" max_dur="00:01:00" >
                <attributes>
                    <attribute name="sharing:service" class="java.lang.String">car</attribute>
                </attributes>
            </activity>
            <leg mode="walk" dep_time="09:04:00" trav_time="00:00:00">
                <attributes>
                    <attribute name="routingMode" class="java.lang.String">sharing:car</attribute>
                </attributes>
            </leg>
            <activity type="sharing pickup interaction" link="261715230005f" start_time="09:04:00" max_dur="00:01:00" >
                <attributes>
                    <attribute name="sharing:service" class="java.lang.String">car</attribute>
                </attributes>
            </activity>
            <leg mode="scar" dep_time="09:05:00" trav_time="00:19:33">
                <attributes>
                    <attribute name="routingMode" class="java.lang.String">sharing:car</attribute>
                </attributes>
            </leg>
            <activity type="sharing dropoff interaction" link="1569383580003f" start_time="09:05:00" max_dur="00:01:00" >
                <attributes>
                    <attribute name="sharing:service" class="java.lang.String">car</attribute>
                </attributes>
            </activity>
            <leg mode="walk" dep_time="09:06:00" trav_time="00:00:00">
                <attributes>
                    <attribute name="routingMode" class="java.lang.String">sharing:car</attribute>
                </attributes>
             </leg>
            <activity type="business_8400.0" link="1073680130012f" x="612093.7949747152" y="5975892.555604265" end_time="12:21:00" >
            </activity>
        </plan>

    </person>

    <person id="scarUserSecond">
        <attributes>
            <attribute name="IPD_actEndTimes" class="java.lang.String">32640.0;44460.0;54720.0;57540.0;-Infinity</attribute>
            <attribute name="IPD_actStartTimes" class="java.lang.String">-Infinity;35880.0;46140.0;55140.0;59220.0</attribute>
            <attribute name="IPD_actTypes" class="java.lang.String">home;business;business;business;home</attribute>
            <attribute name="age" class="java.lang.Integer">59</attribute>
            <attribute name="carAvail" class="java.lang.String">always</attribute>
            <attribute name="gender" class="java.lang.String">m</attribute>
            <attribute name="sim_carAvailability" class="java.lang.String">always</attribute>
            <attribute name="sim_ptAbo" class="java.lang.String">none</attribute>
            <attribute name="sim_regionType" class="java.lang.String">NULL</attribute>
            <attribute name="subpopulation" class="java.lang.String">person</attribute>
        </attributes>

        <plan score="29.086211440912123" selected="yes">
            <activity type="home_59400.0" link="261715230005f" x="597163.9269612308" y="5984292.652443141" end_time="09:07:01" >
            </activity>
            <leg mode="walk" dep_time="09:04:00" trav_time="00:00:00">
                <attributes>
                    <attribute name="routingMode" class="java.lang.String">sharing:car</attribute>
                </attributes>
            </leg>
            <activity type="sharing booking interaction" link="261715230005f" start_time="09:04:00" max_dur="00:01:00" >
                <attributes>
                    <attribute name="sharing:service" class="java.lang.String">car</attribute>
                </attributes>
            </activity>
            <leg mode="walk" dep_time="09:04:00" trav_time="00:00:00">
                <attributes>
                    <attribute name="routingMode" class="java.lang.String">sharing:car</attribute>
                </attributes>
            </leg>
            <activity type="sharing pickup interaction" link="261715230005f" start_time="09:04:00" max_dur="00:01:00" >
                <attributes>
                    <attribute name="sharing:service" class="java.lang.String">car</attribute>
                </attributes>
            </activity>
            <leg mode="scar" dep_time="09:05:00" trav_time="00:19:33">
                <attributes>
                    <attribute name="routingMode" class="java.lang.String">sharing:car</attribute>
                </attributes>
            </leg>
            <activity type="sharing dropoff interaction" link="1569383580003f" start_time="09:05:00" max_dur="00:01:00" >
                <attributes>
                    <attribute name="sharing:service" class="java.lang.String">car</attribute>
                </attributes>
            </activity>
            <leg mode="walk" dep_time="09:06:00" trav_time="00:00:00">
                <attributes>
                    <attribute name="routingMode" class="java.lang.String">sharing:car</attribute>
                </attributes>
            </leg>
            <activity type="business_8400.0" link="1569383580003f" x="612093.7949747152" y="5975892.555604265" end_time="12:21:00" >
                        </activity>
        </plan>

    </person>

    <person id="sbikeUserFirst">
        <attributes>
            <attribute name="IPD_actEndTimes" class="java.lang.String">32640.0;44460.0;54720.0;57540.0;-Infinity</attribute>
            <attribute name="IPD_actStartTimes" class="java.lang.String">-Infinity;35880.0;46140.0;55140.0;59220.0</attribute>
            <attribute name="IPD_actTypes" class="java.lang.String">home;business;business;business;home</attribute>
            <attribute name="age" class="java.lang.Integer">59</attribute>
            <attribute name="carAvail" class="java.lang.String">always</attribute>
            <attribute name="gender" class="java.lang.String">m</attribute>
            <attribute name="sim_carAvailability" class="java.lang.String">always</attribute>
            <attribute name="sim_ptAbo" class="java.lang.String">none</attribute>
            <attribute name="sim_regionType" class="java.lang.String">NULL</attribute>
            <attribute name="subpopulation" class="java.lang.String">person</attribute>
        </attributes>

        <plan score="29.086211440912123" selected="yes">
            <activity type="home_59400.0" link="261715230005f" x="597163.9269612308" y="5984292.652443141" end_time="09:04:00" >
            </activity>
            <leg mode="walk" dep_time="09:04:00" trav_time="00:00:00">
                <attributes>
                    <attribute name="routingMode" class="java.lang.String">sharing:bike</attribute>
                </attributes>
            </leg>
            <activity type="sharing booking interaction" link="261715230005f" start_time="09:04:00" max_dur="00:01:00" >
                <attributes>
                    <attribute name="sharing:service" class="java.lang.String">bike</attribute>
                </attributes>
            </activity>
            <leg mode="walk" dep_time="09:04:00" trav_time="00:00:00">
                <attributes>
                    <attribute name="routingMode" class="java.lang.String">sharing:bike</attribute>
                </attributes>
            </leg>
            <activity type="sharing pickup interaction" link="261715230005f" start_time="09:04:00" max_dur="00:01:00" >
                <attributes>
                    <attribute name="sharing:service" class="java.lang.String">bike</attribute>
                </attributes>
            </activity>
            <leg mode="sbike" dep_time="09:05:00" trav_time="00:19:33">
                <attributes>
                    <attribute name="routingMode" class="java.lang.String">sharing:bike</attribute>
                </attributes>
            </leg>
            <activity type="sharing dropoff interaction" link="1569383580003f" start_time="09:05:00" max_dur="00:01:00" >
                <attributes>
                    <attribute name="sharing:service" class="java.lang.String">bike</attribute>
                </attributes>
            </activity>
            <leg mode="walk" dep_time="09:06:00" trav_time="00:00:00">
                <attributes>
                    <attribute name="routingMode" class="java.lang.String">sharing:bike</attribute>
                </attributes>
            </leg>
            <activity type="business_8400.0" link="1073680130012f" x="612093.7949747152" y="5975892.555604265" end_time="12:21:00" >
            </activity>
        </plan>

    </person>

    <!-- ====================================================================== -->

</population>