<?xml version="1.0" encoding="utf-8"?>
<!DOCTYPE population SYSTEM "http://www.matsim.org/files/dtd/population_v6.dtd">

<population>

    <attributes>
        <attribute name="coordinateReferenceSystem" class="java.lang.String">EPSG:25832</attribute>
    </attributes>


    <!-- ====================================================================== -->

    <person id="113ecc">
        <attributes>
            <attribute name="IPD_actEndTimes" class="java.lang.String">32640.0;44460.0;54720.0;57540.0;-Infinity</attribute>
            <attribute name="IPD_actStartTimes" class="java.lang.String">-Infinity;35880.0;46140.0;55140.0;59220.0</attribute>
            <attribute name="IPD_actTypes" class="java.lang.String">home;business;business;business;home</attribute>
            <attribute name="age" class="java.lang.Integer">59</attribute>
            <attribute name="carAvail" class="java.lang.String">always</attribute>
            <attribute name="gender" class="java.lang.String">m</attribute>
            <attribute name="sim_carAvailability" class="java.lang.String">always</attribute>
            <attribute name="sim_ptAbo" class="java.lang.String">none</attribute>
            <attribute name="sim_regionType" class="java.lang.String">NULL</attribute>
            <attribute name="subpopulation" class="java.lang.String">person</attribute>
        </attributes>

        <plan score="29.086211440912123" selected="yes">
            <activity type="home_59400.0" link="261715230005f" x="597163.9269612308" y="5984292.652443141" end_time="09:04:00" >
            </activity>
            <leg mode="walk" dep_time="09:04:00" trav_time="00:00:00">
                <attributes>
                    <attribute name="routingMode" class="java.lang.String">sharing:car</attribute>
                </attributes>
            </leg>
            <activity type="sharing booking interaction" link="261715230005f" start_time="09:04:00" max_dur="00:01:00" >
                <attributes>
                    <attribute name="sharing:service" class="java.lang.String">car</attribute>
                </attributes>
            </activity>
            <leg mode="walk" dep_time="09:04:00" trav_time="00:00:00">
                <attributes>
                    <attribute name="routingMode" class="java.lang.String">sharing:car</attribute>
                </attributes>
            </leg>
            <activity type="sharing pickup interaction" link="261715230005f" start_time="09:04:00" max_dur="00:01:00" >
                <attributes>
                    <attribute name="sharing:service" class="java.lang.String">car</attribute>
                </attributes>
            </activity>
            <leg mode="scar" dep_time="09:05:00" trav_time="00:19:33">
                <attributes>
                    <attribute name="routingMode" class="java.lang.String">sharing:car</attribute>
                </attributes>
            </leg>
            <activity type="sharing dropoff interaction" link="1569383580003f" start_time="09:05:00" max_dur="00:01:00" >
                <attributes>
                    <attribute name="sharing:service" class="java.lang.String">car</attribute>
                </attributes>
            </activity>
            <leg mode="walk" dep_time="09:06:00" trav_time="00:00:00">
                <attributes>
                    <attribute name="routingMode" class="java.lang.String">sharing:car</attribute>
                </attributes>
             </leg>
            <activity type="business_8400.0" link="1569383580003f" x="612093.7949747152" y="5975892.555604265" end_time="12:21:00" >
            </activity>
            <leg mode="walk" dep_time="12:21:00" trav_time="00:00:00">
                <attributes>
                    <attribute name="routingMode" class="java.lang.String">sharing:car</attribute>
                </attributes>
            </leg>
            <activity type="sharing booking interaction" link="1569383580003f" start_time="12:21:00" max_dur="00:01:00" >
                <attributes>
                    <attribute name="sharing:service" class="java.lang.String">car</attribute>
                </attributes>
            </activity>
            <leg mode="walk" dep_time="12:21:00" trav_time="00:00:00">
                <attributes>
                    <attribute name="routingMode" class="java.lang.String">sharing:car</attribute>
                </attributes>
            </leg>
            <activity type="sharing pickup interaction" link="1569383580003f" start_time="12:21:00" max_dur="00:01:00" >
                <attributes>
                    <attribute name="sharing:service" class="java.lang.String">car</attribute>
                </attributes>
            </activity>
            <leg mode="scar" dep_time="12:22:00" trav_time="00:11:17">
                <attributes>
                    <attribute name="routingMode" class="java.lang.String">sharing:car</attribute>
                </attributes>
                <route type="links" start_link="1569383580003f" end_link="587582840025f" trav_time="00:11:17" distance="13613.655709872108" vehicleRefId="113ecc_scar">1569383580003f 1569383580003r 1569383580002r 252502600001r 1337751470006r 456714560006r 223247110006r 713356520008f 342218630001r 5067634280000r 1378806010001r 842034880004r 842034880003r 848047490008r 848047490007r 848047490004r 848047490000r 5531817090000r 210871500000r 1337751370003r 1337751340004r 223251780005f 223251780014f 1337751410001r 210873770006r 5531817080004r 1330976240005r 538521660001r 538521660000r 4456386410011r 1326666750011r 326232010009r 326232020015r 869055080006r 869055080004r 61023220002r 5235889460000f 538521570003f 547273460000f 547273450002f 538521680003f 538521610005f 538521610009f 538521530007f 2240125610002f 5623106590000f 2240125590000f 538521670001f 587582630001f 587582630015f 308138490001f 308138490003f 375174230009f 1434484850027f 587582850000f 587582700000f 538521510006f 587582840025f</route>
            </leg>
            <activity type="sharing dropoff interaction" link="587582840025f" start_time="12:22:00" max_dur="00:01:00" >
                <attributes>
                    <attribute name="sharing:service" class="java.lang.String">car</attribute>
                </attributes>
            </activity>
            <leg mode="walk" dep_time="12:23:00" trav_time="00:00:00">
                <attributes>
                    <attribute name="routingMode" class="java.lang.String">sharing:car</attribute>
                </attributes>
           </leg>
            <activity type="business_8400.0" link="587582840025f" x="603550.5153375216" y="5983322.169471162" end_time="15:12:00" >
            </activity>
            <leg mode="walk" dep_time="15:12:00" trav_time="00:00:00">
                <attributes>
                    <attribute name="routingMode" class="java.lang.String">sharing:car</attribute>
                </attributes>
            </leg>
            <activity type="sharing booking interaction" link="587582840025f" start_time="15:12:00" max_dur="00:01:00" >
                <attributes>
                    <attribute name="sharing:service" class="java.lang.String">car</attribute>
                </attributes>
            </activity>
            <leg mode="walk" dep_time="15:12:00" trav_time="00:00:00">
                <attributes>
                    <attribute name="routingMode" class="java.lang.String">sharing:car</attribute>
                </attributes>
            </leg>
            <activity type="sharing pickup interaction" link="587582840025f" start_time="15:12:00" max_dur="00:01:00" >
                <attributes>
                    <attribute name="sharing:service" class="java.lang.String">car</attribute>
                </attributes>
            </activity>
            <leg mode="scar" dep_time="15:13:00" trav_time="00:03:31">
                <attributes>
                    <attribute name="routingMode" class="java.lang.String">sharing:car</attribute>
                </attributes>
            </leg>
            <activity type="sharing dropoff interaction" link="472171870004f" start_time="15:13:00" max_dur="00:01:00" >
                <attributes>
                    <attribute name="sharing:service" class="java.lang.String">car</attribute>
                </attributes>
            </activity>
            <leg mode="walk" dep_time="15:14:00" trav_time="00:00:00">
                <attributes>
                    <attribute name="routingMode" class="java.lang.String">sharing:car</attribute>
                </attributes>
             </leg>
            <activity type="business_2400.0" link="472171870004f" x="603279.0788937113" y="5985821.54481456" end_time="15:59:00" >
            </activity>
            <leg mode="walk" dep_time="15:59:00" trav_time="00:00:00">
                <attributes>
                    <attribute name="routingMode" class="java.lang.String">sharing:car</attribute>
                </attributes>
            </leg>
            <activity type="sharing booking interaction" link="472171870004f" start_time="15:59:00" max_dur="00:01:00" >
                <attributes>
                    <attribute name="sharing:service" class="java.lang.String">car</attribute>
                </attributes>
            </activity>
            <leg mode="walk" dep_time="15:59:00" trav_time="00:00:00">
                <attributes>
                    <attribute name="routingMode" class="java.lang.String">sharing:car</attribute>
                </attributes>
             </leg>
            <activity type="sharing pickup interaction" link="472171870004f" start_time="15:59:00" max_dur="00:01:00" >
                <attributes>
                    <attribute name="sharing:service" class="java.lang.String">car</attribute>
                </attributes>
            </activity>
            <leg mode="scar" dep_time="16:00:00" trav_time="00:05:50">
                <attributes>
                    <attribute name="routingMode" class="java.lang.String">sharing:car</attribute>
                </attributes>
            </leg>
            <activity type="sharing dropoff interaction" link="261715230005f" start_time="16:00:00" max_dur="00:01:00" >
                <attributes>
                    <attribute name="sharing:service" class="java.lang.String">car</attribute>
                </attributes>
            </activity>
            <leg mode="walk" dep_time="16:01:00" trav_time="00:00:00">
                <attributes>
                    <attribute name="routingMode" class="java.lang.String">sharing:car</attribute>
                </attributes>
            </leg>
            <activity type="home_59400.0" link="261715230005f" x="597163.9269612308" y="5984292.652443141" >
            </activity>
        </plan>

    </person>

    <!-- ====================================================================== -->

</population>