<?xml version="1.0" encoding="utf-8"?>
<!DOCTYPE population SYSTEM "http://www.matsim.org/files/dtd/population_v6.dtd">

<population>

	<attributes>
		<attribute name="coordinateReferenceSystem" class="java.lang.String">EPSG:25832</attribute>
	</attributes>


<!-- ====================================================================== -->

	<person id="113ecc">
		<attributes>
			<attribute name="IPD_actEndTimes" class="java.lang.String">32640.0;44460.0;54720.0;57540.0;-Infinity</attribute>
			<attribute name="IPD_actStartTimes" class="java.lang.String">-Infinity;35880.0;46140.0;55140.0;59220.0</attribute>
			<attribute name="IPD_actTypes" class="java.lang.String">home;business;business;business;home</attribute>
			<attribute name="age" class="java.lang.Integer">59</attribute>
			<attribute name="carAvail" class="java.lang.String">always</attribute>
			<attribute name="gender" class="java.lang.String">m</attribute>
			<attribute name="income" class="java.lang.Double">9736.416965</attribute>
			<attribute name="sim_carAvailability" class="java.lang.String">always</attribute>
			<attribute name="sim_ptAbo" class="java.lang.String">none</attribute>
			<attribute name="sim_regionType" class="java.lang.String">NULL</attribute>
			<attribute name="subpopulation" class="java.lang.String">person</attribute>
		</attributes>
		<plan score="113.84941700696827" selected="yes">
			<activity type="home_59400.0" link="261715230005f" x="597163.9269612308" y="5984292.652443141" end_time="09:04:00" >
			</activity>
			<leg mode="car" dep_time="09:04:00">
				<attributes>
					<attribute name="routingMode" class="java.lang.String">car</attribute>
				</attributes>
				<route type="links" start_link="261715230005f" end_link="1569383580003f" trav_time="00:23:41" distance="22458.30967220483" vehicleRefId="113ecc">261715230005f 5523673070001f 1073680130001f 1073680130011f 1073680130012f 1073680130017f 5523673060001f 5523673050004f 5523673050005f 5523673050006f 1073680140013f 5523673040006f 1434474180000f 1434474160000f 331892770001f 61023190002f 61023190003f 61023190004f 8427658760002f 2169166050001f 3525881340001f 8427658750005f 6569762020000f 6569762010000f 6569761990001f 1434474220000f 1434474220001f 1434474220010f 1434474220013f 1434474220021f 6569761970000f 6569761960000f 6569761980002f 6569761980004f 1434474250003f 538191300011f 538191300012f 587582840025r 538521510006r 587582700000r 587582850000r 1434484850027r 375174230009r 308138490003r 308138490001r 587582630015r 587582630001r 538521670001r 2240125590000r 5623105770000f 2240125630001f 538521530007r 538521610009r 538521610005r 538521680003r 547273450002r 547273460000r 538521570003r 5235889460000r 61023220002f 869055080004f 869055080006f 326232020015f 326232010009f 1326666750011f 4456386410011f 538521660000f 538521660001f 1330976240005f 5531817080004f 210873770006f 1337751410001f 1378805890001f 1378805890004f 1378805890008f 1337751340004f 1337751370003f 210871500000f 5531817090000f 848047490000f 848047490004f 848047490007f 848047490008f 842034880003f 842034880004f 1378806010001f 5067634280000f 342218630001f 713356520008r 223247110006f 456714560006f 1337751470006f 252502600001f 1569383580002f 1569383580003f</route>
			</leg>
			<activity type="business_8400.0" link="1569383580003f" x="612093.7949747152" y="5975892.555604265" end_time="12:21:00" >
			</activity>
			<leg mode="car" dep_time="12:21:00">
				<attributes>
					<attribute name="routingMode" class="java.lang.String">car</attribute>
				</attributes>
				<route type="links" start_link="1569383580003f" end_link="587582840025f" trav_time="00:18:11" distance="16232.01546818618" vehicleRefId="113ecc">1569383580003f 1569383580003r 1569383580002r 252502600001r 1337751470006r 456714560006r 223247110006r 45411970001r 5067608230001r 257323730007r 210841570002f 210841570006f 210841570015f 257323740007f 481022640001f 481022640005f 481022640007f 259839750011f 259839750012f 303132660001f 481489170007f 481489170019f 259840530016f 1507685580021f 376012840006f 1082305500004f 303132670001f 303132670005f 1082305470009f 1559680160000f 1559680170015f 1559680170017f 1082305490009f 1082305540005f 1082305550004f 1082305550007f 1082305550011f 1082305550013f 2600960630002f 250545060001f 2952691980001f 3204360830000f 3204360810015f 2952691990003f 1081441830007f 5623106590000f 2240125590000f 538521670001f 587582630001f 587582630015f 308138490001f 308138490003f 375174230009f 1434484850027f 587582850000f 587582700000f 538521510006f 587582840025f</route>
			</leg>
			<activity type="business_8400.0" link="587582840025f" x="603550.5153375216" y="5983322.169471162" end_time="15:12:00" >
			</activity>
			<leg mode="car" dep_time="15:12:00">
				<attributes>
					<attribute name="routingMode" class="java.lang.String">car</attribute>
				</attributes>
				<route type="links" start_link="587582840025f" end_link="472171870004f" trav_time="00:03:42" distance="2453.1615177912045" vehicleRefId="113ecc">587582840025f 538191300012r 538191300011r 1434474250003r 6569761980004r 6569761980002r 6569761960000r 6569761970000r 1434474220021r 1434474220013r 1434474220010r 1434474220001r 1434474220000r 6569761990001r 6569762000000f 472171870000f 472171870004f</route>
			</leg>
			<activity type="business_2400.0" link="472171870004f" x="603279.0788937113" y="5985821.54481456" end_time="15:59:00" >
			</activity>
			<leg mode="car" dep_time="15:59:00">
				<attributes>
					<attribute name="routingMode" class="java.lang.String">car</attribute>
				</attributes>
				<route type="links" start_link="472171870004f" end_link="261715230005f" trav_time="00:06:49" distance="7095.062247776974" vehicleRefId="113ecc">472171870004f 472171870004r 472171870000r 6569762000000r 6569762010000r 6569762020000r 8427658750005r 3525881340001r 2169166050001r 8427658760002r 61023190004r 61023190003r 61023190002r 331892770001r 1434474160000r 1434474180000r 5523673040006r 1073680140013r 5523673050006r 5523673050005r 5523673050004r 5523673060001r 1073680130017r 1073680130012r 1073680130011r 1073680130001r 5523673070001r 261715230005r 261715230005f</route>
			</leg>
			<activity type="home_59400.0" link="261715230005f" x="597163.9269612308" y="5984292.652443141" >
			</activity>
		</plan>

	</person>

<!-- ====================================================================== -->

	<person id="113efb">
		<attributes>
			<attribute name="IPD_actEndTimes" class="java.lang.String">-Infinity</attribute>
			<attribute name="IPD_actStartTimes" class="java.lang.String">-Infinity</attribute>
			<attribute name="IPD_actTypes" class="java.lang.String">home</attribute>
			<attribute name="age" class="java.lang.Integer">61</attribute>
			<attribute name="carAvail" class="java.lang.String">always</attribute>
			<attribute name="gender" class="java.lang.String">f</attribute>
			<attribute name="income" class="java.lang.Double">9736.416965</attribute>
			<attribute name="sim_carAvailability" class="java.lang.String">always</attribute>
			<attribute name="sim_ptAbo" class="java.lang.String">none</attribute>
			<attribute name="sim_regionType" class="java.lang.String">NULL</attribute>
			<attribute name="subpopulation" class="java.lang.String">person</attribute>
		</attributes>
		<plan score="0.0" selected="yes">
			<activity type="home_86400.0" link="2263083390007f" x="596964.9221933321" y="5984433.177637921" >
			</activity>
		</plan>

	</person>

<!-- ====================================================================== -->

	<person id="113f00">
		<attributes>
			<attribute name="IPD_actEndTimes" class="java.lang.String">36780.0;44760.0;50460.0;54000.0;71160.0;75780.0;79440.0;84840.0;-Infinity</attribute>
			<attribute name="IPD_actStartTimes" class="java.lang.String">-Infinity;38940.0;47880.0;51540.0;54840.0;72360.0;76920.0;80160.0;85500.0</attribute>
			<attribute name="IPD_actTypes" class="java.lang.String">home;business;business;business;business;business;business;business;business</attribute>
			<attribute name="age" class="java.lang.Integer">64</attribute>
			<attribute name="carAvail" class="java.lang.String">always</attribute>
			<attribute name="gender" class="java.lang.String">f</attribute>
			<attribute name="income" class="java.lang.Double">9736.416965</attribute>
			<attribute name="sim_carAvailability" class="java.lang.String">always</attribute>
			<attribute name="sim_ptAbo" class="java.lang.String">none</attribute>
			<attribute name="sim_regionType" class="java.lang.String">NULL</attribute>
			<attribute name="subpopulation" class="java.lang.String">person</attribute>
		</attributes>
		<plan score="44.630834189561284" selected="yes">
			<activity type="home_36600.0" link="1410424510007f" x="597169.6653616321" y="5984770.2399659185" end_time="10:13:00" >
			</activity>
			<leg mode="car" dep_time="10:13:00">
				<attributes>
					<attribute name="routingMode" class="java.lang.String">car</attribute>
				</attributes>
				<route type="links" start_link="1410424510007f" end_link="3468988580019f" trav_time="00:24:09" distance="19664.470282810304" vehicleRefId="113f00">1410424510007f 1410424510007r 261715220010r 261715220006r 261715220003r 2316064670016r 2316064620007r 5523529290002r 5523529300003r 5523529310001r 2316064250006r 501317270014r 501317260000r 3076228120012r 3076228060009r 3076227980008r 155536710020r 155536710014r 155536710008r 155536710006r 155536710001r 5983666560003r 5983666560000r 5983666580007r 5983666580004r 5983666580000r 3076228050002r 155536700016r 155536700003r 1073680120002r 1073680090001r 352635080001r 352635070000r 4924771520000r 1073680080015r 1073680080010r 1073680080009r 5199776090000r 352633820002r 352633820000r 352633810018r 352633810016r 352633810013r 352633810010r 352633810009r 352633810008r 352633810006r 352633810004r 4558958410000r 4558958420006r 4558958420003r 4558958420002r 2898604690000r 42600940008r 42600940000r 2898604720001r 6422032330021r 6422032330019r 6422032330018r 6422032330015r 273564620014f 273564620015f 273564620020f 6366283120000f 1816589310000f 6366304350007f 445397470005r 4064333630002f 4064333620006r 4064333620002r 286769160014f 6366304330002f 191855080001f 3468988580019f</route>
			</leg>
			<activity type="business_6000.0" link="3468988580019f" x="585128.1378518876" y="5980085.529591967" end_time="12:26:00" >
			</activity>
			<leg mode="car" dep_time="12:26:00">
				<attributes>
					<attribute name="routingMode" class="java.lang.String">car</attribute>
				</attributes>
				<route type="links" start_link="3468988580019f" end_link="250202200006f" trav_time="00:55:57" distance="43581.96715821256" vehicleRefId="113f00">3468988580019f 3468988480000f 3468988490001f 3468988490007f 1150150670001r 6366283100000r 1150150690001r 436692270002r 273564660019r 273564660015r 273564660010r 6366283120000f 1816589310000f 273564640000f 273564640012f 6366304360007f 6366304360012f 3469082720001f 3469082680001f 3469082680003f 3469082680010f 3469082680014f 6366304370011f 4106024120000r 684282370000r 42578660000r 1550423110004f 1177882860001f 1112090440011f 3139632700002r 6549556530000r 4918544130000r 803195290000r 2061036830003r 3999333920002r 1195251400004r 1195251390001r 1195251390000r 6037919600000r 4918544970003r 4918544970002r 1249969050008r 1249969050005r 352629780000r 352629770000f 1249969040000f 1192931350000f 1192931430001f 453340760004f 42720430001f 4918556870002r 453340790008r 6037919360000r 260887580017r 260887580016r 260887580009r 260887580007r 260887580005r 260887580004r 1550423080038r 1550423080032r 1550423080023r 1550423080022r 1550423080021r 1550423080011r 1550423080010r 1550423080009r 1550423080007r 1550423080002r 453340810005r 6037919260001r 446973670000r 446973680000r 352628740004r 446973650000r 446973660000r 6037919220000r 49437800002r 49065150008f 352628720009f 4853567390002f 4853567370000f 8366831950000f 4853567410001f 2780078060010f 453340830005f 4853567420003f 2396391780000f 2396391770000r 4853567430003r 2396344590003r 4853567440001r 2396344570001r 453340850003r 453340850002r 4853567450002r 4853567470006r 6540068520000r 2396344620003r 4853567460000r 352627490000r 4701947490001r 4701947490000r 4853567480001r 6540068510000r 453340860003r 6540068500001r 7337211070003r 7337211070001r 7337211060002r 7337211060001r 352627470017r 352627470009r 352627470008r 352627470003r 352627470002r 4702980230004r 6554078190000r 6554078180001r 6554078200001r 6554078210004r 6554078210000r 453340870002r 352626510001r 6554078160000r 6554078170000r 6554078150000r 1260827690006r 6554078130000r 6554078140001r 6554078120000r 1569774120013r 1569774120006r 1569774120004r 8275943440000r 5563701350008r 5563701350004r 5563701350002r 453340890001f 453340890020f 471251010000f 471251020000f 453340900000f 334642870003f 334642870006f 334642870007f 453340910001f 453340910004f 3136317060000f 3136317060002f 3136317050003f 3136317070000f 3136317070002f 3136317070007f 3136317070008f 5257077280002f 453340920000f 2114669280000f 379338440003f 379338440012f 453340930001r 334642890000r 536105210000r 343995110005r 48952830004r 4403847280000r 4403847370000r 4403847410002r 4403847380000r 4403847400001r 4403847390000r 453341020002r 4853514190000r 4388811010001r 4388811000001r 4853514200000r 453341070002r 4853514220001r 4853514250000r 453341060004r 453341060000r 453341080000r 5261610390000r 302809540003r 8509284780000r 5261610380002r 584173290001r 453341090000r 584173320002r 8154894240001r 453341040001r 5261617810016r 5261617810007r 5261617810003r 5261617820002r 1544526780004f 81354880008f 2114624520009f 3399186230000f 3399186200008f 3755458210025r 3755458210020r 3036541950000f 3036541950004f 4784277130004f 4784277140006f 3045211430003f 4784277200000r 4784277150002r 4784277210001r 2427460530000r 3028129970001r 3777389190002r 3028129930003r 330774680022r 6993680690000r 3028129910004r 1551466850005r 5546601630003r 5546601620001r 3060482160004r 2205706800012f 2291893510009f 3060482540001f 3060482220003r 5546601650002r 321078330002r 443684040010r 1504553560010f 5618706620000f 5618706620002f 605451310001f 1675969500004f 1675969500010f 259040820002f 259040800001f 6800491830000f 6518082050001f 6518082020012f 7331643930001f 7331643920002f 6518082040001f 302809390004f 415727480001f 5919066470000f 250202200002f 250202200006f</route>
			</leg>
			<activity type="business_2400.0" link="250202200006f" x="564710.8554359305" y="5948694.418322517" end_time="14:01:00" >
			</activity>
			<leg mode="car" dep_time="14:01:00">
				<attributes>
					<attribute name="routingMode" class="java.lang.String">car</attribute>
				</attributes>
				<route type="links" start_link="250202200006f" end_link="382798320003f" trav_time="00:14:11" distance="10166.761648639687" vehicleRefId="113f00">250202200006f 250202200006r 250202200002r 5919066470000r 302809400004f 302809400009f 302809400017f 302809400039f 322364230016f 5919066460000f 4966015680011r 4966015680002r 4966015700003r 3596717670010r 5331449250003r 5331449260001r 5331449270005r 4631272630002r 4631272640002r 4631272650001r 4631272650000r 4631260560002r 4631260730004r 4631260620001r 3744838360005r 4631260680005r 3744838380005r 4631260910007r 4631260860003r 4631260820002r 4631260770004r 3744838390004r 4631260960006r 4631261010008r 4631261060004r 4631261100000r 4631261130002f 5208863120001f 43295000013f 213092860007f 43295010012f 5913480980002f 5913480950002f 43294970072f 3141514520009f 345812380018f 213995190009f 488051100002f 1869201010001f 891246770004f 3138518560003f 455909500000f 289094870008f 559271470007r 559271440016r 421772820013r 421772820004r 382798320003f</route>
			</leg>
			<activity type="business_2400.0" link="382798320003f" x="566209.6079807894" y="5941141.097231428" end_time="15:00:00" >
			</activity>
			<leg mode="car" dep_time="15:00:00">
				<attributes>
					<attribute name="routingMode" class="java.lang.String">car</attribute>
				</attributes>
				<route type="links" start_link="382798320003f" end_link="33746090001f" trav_time="00:15:28" distance="6483.557898279463" vehicleRefId="113f00">382798320003f 382798320005f 798244730000f 798257890000f 289094840000f 4925182810003f 382798340005f 382798340011f 524061270003f 524061270004f 524061270005f 524061270007f 524061270008f 6567890490002f 318142670000r 1308473740001r 7087802560043r 7087802560040r 7087802560035r 7087802560031r 318240120000r 47710200004r 47710200001r 47952920000r 343515030002r 359487660000r 47710190004r 47730440003r 6705368350001r 6705368330000r 1362428700000r 359487690001r 359487680006r 48253630003f 48253640000f 48253640003f 48253420000f 6429032160004f 1987747390001f 1862159250001f 600663600001f 1885580470001f 1885580470004f 1885580510002r 1850833160001r 1861066240001r 7604904390000r 6981032270000r 7604904400000r 7604904410000r 1813776800027r 1813776800024r 1813776800020r 33740780010f 368218260004f 368218260010f 33740800006r 33740800004r 33740800002r 1901558710013r 1901558710012r 1901558710008r 33746410007f 1637823780001f 3394381850002f 3394381850006f 1116473140002f 3170067270013f 3170067270017f 5392425100000f 4046460330005f 4046460330010f 4046460330014f 4046460330019f 4046460330022f 5392419690015f 8171997250004f 33746090008r 33746090005r 33746090004r 33746090003r 33746090002r 33746090001r 33746090001f</route>
			</leg>
			<activity type="business_16200.0" link="33746090001f" x="570029.1056456286" y="5940884.8036479205" end_time="19:46:00" >
			</activity>
			<leg mode="walk" dep_time="19:46:00">
				<attributes>
					<attribute name="routingMode" class="java.lang.String">pt</attribute>
				</attributes>
				<route type="generic" start_link="33746090001f" end_link="1508823610011f" trav_time="00:56:37" distance="3586.303859527115"></route>
			</leg>
			<activity type="business_3600.0" link="1508823610011f" x="570579.4389866259" y="5943588.04852079" end_time="21:03:00" >
			</activity>
			<leg mode="walk" dep_time="21:03:00">
				<attributes>
					<attribute name="routingMode" class="java.lang.String">pt</attribute>
				</attributes>
				<route type="generic" start_link="1508823610011f" end_link="pt_25276" trav_time="00:01:43" distance="108.70541114644048"></route>
			</leg>
			<activity type="pt interaction" link="pt_25276" x="570613.7875932324" y="5943511.809410941" max_dur="00:00:00" >
			</activity>
			<leg mode="pt" dep_time="21:04:43">
				<attributes>
					<attribute name="routingMode" class="java.lang.String">pt</attribute>
				</attributes>
				<route type="default_pt" start_link="pt_25276" end_link="pt_25281" trav_time="00:20:17" distance="6826.713326182902">{"transitRouteId":"S1---5111_109_7","boardingTime":"21:13:00","transitLineId":"S1---5111_109","accessFacilityId":"000000719102","egressFacilityId":"000000070950"}</route>
			</leg>
			<activity type="pt interaction" link="pt_25281" x="569137.3277930989" y="5938123.97713372" max_dur="00:00:00" >
			</activity>
			<leg mode="walk" dep_time="21:25:00">
				<attributes>
					<attribute name="routingMode" class="java.lang.String">pt</attribute>
				</attributes>
				<route type="generic" start_link="pt_25281" end_link="1854069260004f" trav_time="00:15:01" distance="950.5408998247476"></route>
			</leg>
			<activity type="business_2400.0" link="1854069260004f" x="569045.309690704" y="5937398.605075519" end_time="22:04:00" >
			</activity>
			<leg mode="car" dep_time="22:04:00">
				<attributes>
					<attribute name="routingMode" class="java.lang.String">car</attribute>
				</attributes>
				<route type="links" start_link="1854069260004f" end_link="6873274570002f" trav_time="00:08:32" distance="4082.808730822793" vehicleRefId="113f00">1854069260004f 368215330000f 1854069200001f 1885650800004r 1472334040003r 1861086130001f 6056867760001f 1861066250007r 1472333880001r 8014060610001r 1472789830001r 6056867820000f 6056867860004f 1472789910000f 1472789910006f 1077461150004r 254911100003r 254911100001r 51223410002f 1472333940003f 2523784110003r 1472333990001r 2626060830000r 1861739920003r 3738084850004r 1861739930007r 360016990008r 1471096510019r 1471096510009r 1471096510005r 1471096510002r 452037400005r 5383533350001r 5383533360002r 5383533330002r 5383533320000r 452037390004r 452037390001r 301538210007r 1461606760003f 1461606710004f 1461606750003f 1461606740000f 1461606790003f 6087158830000f 5313878740004f 8355576000000f 48376300001f 6873274620001f 6873274550002f 6873274540000f 319029020002f 6873274690000f 6873274680000f 48440400000f 6873274640000f 6873274530001f 6873274570002f</route>
			</leg>
			<activity type="business_4800.0" link="6873274570002f" x="567809.9706555195" y="5939771.877341081" end_time="23:34:00" >
			</activity>
			<leg mode="car" dep_time="23:34:00">
				<attributes>
					<attribute name="routingMode" class="java.lang.String">car</attribute>
				</attributes>
				<route type="links" start_link="6873274570002f" end_link="316406990015f" trav_time="00:12:58" distance="6258.135700196515" vehicleRefId="113f00">6873274570002f 6873274580002f 1855483980006r 3610753740003r 3610753720000r 1855483990000r 48376320013f 6873274770002f 6873274740000f 6873274680000f 6873274670000f 5313878700000f 48376510001f 48376500002f 5313878690000f 488051040000f 50794670001f 50794660000f 1207156610000f 50794680001f 50794680003f 50794680005f 6551797400000f 6551797390002f 50794650001f 6551792660000f 50794690003f 6982855470005f 427133860002f 532029140004f 6982855560000f 6982855550004f 6983039180000f 1813776850000f 1813776870004f 1813776860001f 1813776880003f 228179830000f 1813776900003f 1471096470001f 1471096470003f 1117376960004f 1605232530004f 1901558750002f 51713030007f 876322760003f 6054915390000f 306535450002f 6054915380003f 324323180000f 401415000004f 306540390006f 222861860000f 222861890001f 1117376980001f 386637270028r 386637270014r 386637270003r 6639837830002r 6053629800004f 33747840003f 460421570001f 460421580002f 460421580005f 7775753740000f 7775753740006f 7775753690003f 7775753680001f 7803133510001f 7775753760003f 6057338340001f 460421590003f 460421590006f 1987578970000f 6053630010000f 316406950003f 7775753640001f 316406990004f 316406990011f 316406990015f</route>
			</leg>
			<activity type="business_1200.0" link="316406990015f" x="571830.7378382357" y="5942672.291764536" >
			</activity>
		</plan>

	</person>

<!-- ====================================================================== -->

	<person id="113f02">
		<attributes>
			<attribute name="IPD_actEndTimes" class="java.lang.String">19883.0;56491.0;58350.0;59495.0;69118.0;81850.0;-Infinity</attribute>
			<attribute name="IPD_actStartTimes" class="java.lang.String">-Infinity;20083.0;56683.0;58903.0;68503.0;70003.0;82603.0</attribute>
			<attribute name="IPD_actTypes" class="java.lang.String">home;work;home;leisure;leisure;leisure;home</attribute>
			<attribute name="age" class="java.lang.Integer">17</attribute>
			<attribute name="carAvail" class="java.lang.String">never</attribute>
			<attribute name="gender" class="java.lang.String">m</attribute>
			<attribute name="income" class="java.lang.Double">9736.416965</attribute>
			<attribute name="sim_carAvailability" class="java.lang.String">never</attribute>
			<attribute name="sim_ptAbo" class="java.lang.String">none</attribute>
			<attribute name="sim_regionType" class="java.lang.String">NULL</attribute>
			<attribute name="subpopulation" class="java.lang.String">person</attribute>
		</attributes>
		<plan score="117.78156663086554" selected="yes">
			<activity type="home_23400.0" link="6893822250002f" x="597154.5346880215" y="5984459.402417765" end_time="05:31:23" >
			</activity>
			<leg mode="bike" dep_time="05:31:23">
				<attributes>
					<attribute name="routingMode" class="java.lang.String">bike</attribute>
				</attributes>
				<route type="generic" start_link="6893822250002f" end_link="1073680130012f" trav_time="00:06:04" distance="1144.5637980728416"></route>
			</leg>
			<activity type="work_36600.0" link="1073680130012f" x="598032.4670694929" y="5984525.721476143" end_time="15:41:31" >
			</activity>
			<leg mode="ride" dep_time="15:41:31">
				<attributes>
					<attribute name="routingMode" class="java.lang.String">ride</attribute>
				</attributes>
				<route type="links" start_link="1073680130012f" end_link="6893822250002f" trav_time="00:01:38" distance="1440.1632733280792" vehicleRefId="null">1073680130012f 1073680130012r 1073680130011r 1073680130001r 5523673070001r 261715230005r 8407027830000r 6893822250003r 6893822250002r 6893822250002f</route>
			</leg>
			<activity type="home_1800.0" link="6893822250002f" x="597154.5346880215" y="5984459.402417765" end_time="16:12:30" >
			</activity>
			<leg mode="ride" dep_time="16:12:30">
				<attributes>
					<attribute name="routingMode" class="java.lang.String">ride</attribute>
				</attributes>
				<route type="links" start_link="6893822250002f" end_link="3076227980008f" trav_time="00:03:31" distance="5227.042080725992" vehicleRefId="null">6893822250002f 6893822250003f 8407027830000f 261715230005f 5523673080001r 5523673090003r 5523673090002r 5523673090000r 1410424440008r 1410424430000r 1073680110016r 377261970010r 3076227980008r 3076227980008f</route>
			</leg>
			<activity type="leisure_600.0" link="3076227980008f" x="593783.5496643056" y="5984976.5887164995" end_time="16:31:35" >
			</activity>
			<leg mode="walk" dep_time="16:31:35">
				<attributes>
					<attribute name="routingMode" class="java.lang.String">pt</attribute>
				</attributes>
				<route type="generic" start_link="3076227980008f" end_link="291569480006f" trav_time="02:03:58" distance="7851.289694536251"></route>
			</leg>
			<activity type="leisure_600.0" link="291569480006f" x="596728.2855898713" y="5979703.683421475" end_time="19:11:58" >
			</activity>
			<leg mode="ride" dep_time="19:11:58">
				<attributes>
					<attribute name="routingMode" class="java.lang.String">ride</attribute>
				</attributes>
				<route type="links" start_link="291569480006f" end_link="50485000004f" trav_time="00:17:26" distance="12492.501703300963" vehicleRefId="null">291569480006f 291569480013f 1942914820005f 1942914830003f 1942914830004f 3192759540001f 1227064280011r 2822724740018r 2822724730020r 259998600021r 259998600017r 259998600010r 259998600000r 2316064500006r 2316064500002r 339054770006r 339054770000r 2316064460025r 324617740000r 5523673090002f 5523673090003f 5523673080001f 5523673070001f 1073680130001f 1073680130011f 1073680130012f 1073680130017f 5523673060001f 5523673050004f 5523673050005f 5523673050006f 1073680140013f 5523673040006f 1434474180000f 1434474160000f 331892770001f 331892770004f 5523673020000f 5523673010000f 5523673000000f 7725369690000f 5523673030002f 50485000001f 50485000004f</route>
			</leg>
			<activity type="leisure_12000.0" link="50485000004f" x="603029.4835282456" y="5986344.68260557" end_time="22:44:10" >
			</activity>
			<leg mode="ride" dep_time="22:44:10">
				<attributes>
					<attribute name="routingMode" class="java.lang.String">ride</attribute>
				</attributes>
				<route type="links" start_link="50485000004f" end_link="6893822250002f" trav_time="00:06:32" distance="7063.358597270726" vehicleRefId="null">50485000004f 50485000004r 50485000001r 5523673030002r 7725369690000r 5523673000000r 5523673010000r 5523673020000r 331892770004r 331892770001r 1434474160000r 1434474180000r 5523673040006r 1073680140013r 5523673050006r 5523673050005r 5523673050004r 5523673060001r 1073680130017r 1073680130012r 1073680130011r 1073680130001r 5523673070001r 261715230005r 8407027830000r 6893822250003r 6893822250002r 6893822250002f</route>
			</leg>
			<activity type="home_23400.0" link="6893822250002f" x="597154.5346880215" y="5984459.402417765" >
			</activity>
		</plan>

	</person>

<!-- ====================================================================== -->

	<person id="116174">
		<attributes>
			<attribute name="IPD_actEndTimes" class="java.lang.String">26760.0;60180.0;70740.0;-Infinity</attribute>
			<attribute name="IPD_actStartTimes" class="java.lang.String">-Infinity;29460.0;62700.0;71700.0</attribute>
			<attribute name="IPD_actTypes" class="java.lang.String">home;work;work;home</attribute>
			<attribute name="age" class="java.lang.Integer">50</attribute>
			<attribute name="carAvail" class="java.lang.String">always</attribute>
			<attribute name="gender" class="java.lang.String">m</attribute>
			<attribute name="income" class="java.lang.Double">27488.28615</attribute>
			<attribute name="marginalUtilityOfMoney" class="java.lang.Double">0.9066632286548798</attribute>
			<attribute name="sim_regionType" class="java.lang.String">mittelzentrumFlach</attribute>
			<attribute name="subpopulation" class="java.lang.String">person</attribute>
		</attributes>
		<plan score="61.09358729573174" selected="yes">
			<activity type="home_42000.0" link="848047550001f" x="610103.553064373" y="5976227.945343838" end_time="07:26:00" >
			</activity>
			<leg mode="walk" dep_time="07:26:00">
				<attributes>
					<attribute name="routingMode" class="java.lang.String">pt</attribute>
				</attributes>
				<route type="generic" start_link="848047550001f" end_link="pt_20042" trav_time="01:31:24" distance="5788.499769297972"></route>
			</leg>
			<activity type="pt interaction" link="pt_20042" x="607889.1586732899" y="5972364.925192798" max_dur="00:00:00" >
			</activity>
			<leg mode="pt" dep_time="08:57:24">
				<attributes>
					<attribute name="routingMode" class="java.lang.String">pt</attribute>
				</attributes>
				<route type="default_pt" start_link="pt_20042" end_link="pt_20047" trav_time="00:56:36" distance="2882.639613136551">{"transitRouteId":"7650---2217_3_3","boardingTime":"09:44:00","transitLineId":"7650---2217_3","accessFacilityId":"900000557981","egressFacilityId":"900000600011"}</route>
			</leg>
			<activity type="pt interaction" link="pt_20047" x="609807.3727796061" y="5970346.713675714" max_dur="00:00:00" >
			</activity>
			<leg mode="walk" dep_time="09:54:00">
				<attributes>
					<attribute name="routingMode" class="java.lang.String">pt</attribute>
				</attributes>
				<route type="generic" start_link="pt_20047" end_link="pt_24968" trav_time="00:05:27" distance="350.0"></route>
			</leg>